/*--------------------------------*- C++ -*----------------------------------*\
| =========                 |                                                 |
| \\      /  F ield         | OpenFOAM: The Open Source CFD Toolbox           |
|  \\    /   O peration     | Version:  v1906                                 |
|   \\  /    A nd           | Web:      www.OpenFOAM.com                      |
|    \\/     M anipulation  |                                                 |
\*---------------------------------------------------------------------------*/
FoamFile
{
    version     2.0;
    format      ascii;
    class       polyBoundaryMesh;
    location    "constant/polyMesh";
    object      boundary;
}
// * * * * * * * * * * * * * * * * * * * * * * * * * * * * * * * * * * * * * //

6
(
    inlet
    {
        type            cyclic;
        inGroups        1(cyclic);
        nFaces          200;
        startFace       320596;
        matchTolerance  0.0001;
        transform       unknown;
        neighbourPatch  outlet;
    }
    outlet
    {
        type            cyclic;
        inGroups        1(cyclic);
        nFaces          200;
        startFace       320796;
        matchTolerance  0.0001;
        transform       unknown;
        neighbourPatch  inlet;
    }
    ground
    {
        type            wall;
        inGroups        1(wall);
        nFaces          804;
        startFace       320996;
    }
    top
    {
        type            wall;
        inGroups        1(wall);
        nFaces          804;
        startFace       321800;
    }
    front
    {
        type            empty;
        inGroups        1(empty);
        nFaces          160800;
        startFace       322604;
    }
    back
    {
        type            empty;
        inGroups        1(empty);
        nFaces          160800;
        startFace       483404;
    }
)

// ************************************************************************* //
